Circuit: * Y:\projects\hardware\esp32_battery_isolator\simulations\overvoltage protection\ltspice_overvoltage_protection.lib.asc

Warning: Multiple definitions of model "1n750" Type: Diode
.OP point found by inspection.

Date: Mon Oct 11 11:24:40 2021
Total elapsed time: 0.030 seconds.

tnom = 27
temp = 27
method = trap
totiter = 60
traniter = 0
tranpoints = 0
accept = 0
rejected = 0
matrix size = 3
fillins = 0
solver = Normal
Matrix Compiler1: 104 bytes object code size
Matrix Compiler2: 189 bytes object code size
