Circuit: * Y:\projects\hardware\esp32_battery_isolator\simulations\Draft1.asc

Direct Newton iteration failed to find .op point.  (Use ".option noopiter" to skip.)
Starting Gmin stepping
Gmin = 10
Gmin = 1.07374
Gmin = 0.115292
Gmin = 0.0123794
Gmin = 0.00132923
Gmin = 0.000142725
Gmin = 1.5325e-005
Gmin = 1.6455e-006
Gmin = 1.76685e-007
Gmin = 1.89714e-008
Gmin = 2.03704e-009
Gmin = 2.18725e-010
Gmin = 2.34854e-011
Gmin = 2.52173e-012
Gmin = 2.70769e-013
Gmin = 0
Gmin stepping succeeded in finding the operating point.


Date: Fri Oct 15 17:34:14 2021
Total elapsed time: 4.687 seconds.

tnom = 27
temp = 27
method = modified trap
totiter = 800462
traniter = 800030
tranpoints = 400016
accept = 240018
rejected = 159998
matrix size = 13
fillins = 3
solver = Normal
Matrix Compiler1: 694 bytes object code size  0.2/0.1/[0.1]
Matrix Compiler2: 1.11 KB object code size  0.2/0.2/[0.1]

