Circuit: * Y:\projects\hardware\esp32_battery_isolator\simulations\MOSFET switch circuit- correct.asc

Early termination of direct N-R iteration.
Direct Newton iteration failed to find .op point.  (Use ".option noopiter" to skip.)
Starting Gmin stepping
Gmin = 10
Gmin = 1.07374
Gmin = 0.115292
Gmin = 0.0123794
Gmin = 0.00132923
Gmin = 0.000142725
Gmin = 1.5325e-005
Gmin = 1.6455e-006
Gmin = 1.76685e-007
Gmin = 1.89714e-008
Gmin = 2.03704e-009
Gmin = 2.18725e-010
Gmin = 2.34854e-011
Gmin = 2.52173e-012
Gmin = 2.70769e-013
Gmin = 0
Gmin stepping succeeded in finding the operating point.

.step pullup=200
.step pullup=800
.step pullup=1400
.step pullup=2000

Date: Mon Jan 17 09:55:14 2022
Total elapsed time: 0.546 seconds.

tnom = 27
temp = 27
method = modified trap
totiter = 11921
traniter = 10994
tranpoints = 3352
accept = 2698
rejected = 654
matrix size = 36
fillins = 48
solver = Normal
Matrix Compiler1: 5.75 KB object code size  0.7/0.4/[0.2]
Matrix Compiler2: 4.00 KB object code size  0.3/0.4/[0.2]

