Circuit: * Y:\projects\hardware\esp32_battery_isolator\simulations\MOSFET switch circuit.asc

WARNING: Specified period is not longer than the sum of Trise, Tfall, and Ton for v1.  Increasing period to 0.000100006
WARNING: Specified period is not longer than the sum of Trise, Tfall, and Ton for v5.  Increasing period to 0.000100006
Direct Newton iteration for .op point succeeded.
.step pullup=200
.step pullup=800
.step pullup=1400
.step pullup=2000

Date: Mon Jan 17 10:04:18 2022
Total elapsed time: 0.345 seconds.

tnom = 27
temp = 27
method = modified trap
totiter = 6799
traniter = 6763
tranpoints = 2578
accept = 2252
rejected = 326
matrix size = 39
fillins = 48
solver = Normal
Matrix Compiler1: 5.73 KB object code size  0.9/0.5/[0.2]
Matrix Compiler2: 4.17 KB object code size  0.3/0.5/[0.2]

